TITLE = OpenFEMLab export
BEGIN BULK
MAT1,7,1.785e+11,,0.3,7850
GRID,11,,0,0,0
GRID,22,,1,0,0
GRID,33,,2,0,0
GRID,44,,3,0,0
CROD,1,40,11,22
CROD,2,40,22,33
CROD,3,40,33,44
ENDDATA
